# generated using pymatgen
data_SiO2
_symmetry_space_group_name_H-M   'P 1'
_cell_length_a   4.91655781
_cell_length_b   4.91655781
_cell_length_c   5.43162525
_cell_angle_alpha   90.00000000
_cell_angle_beta   90.00000000
_cell_angle_gamma   120.00000000
_symmetry_Int_Tables_number   1
_chemical_formula_structural   SiO2
_chemical_formula_sum   'Si3 O6'
_cell_volume   113.70582928
_cell_formula_units_Z   3
loop_
 _symmetry_equiv_pos_site_id
 _symmetry_equiv_pos_as_xyz
  1  'x, y, z'
loop_
 _atom_type_symbol
 _atom_type_oxidation_number
  Si4+  4.0
  O2-  -2.0
loop_
 _atom_site_type_symbol
 _atom_site_label
 _atom_site_symmetry_multiplicity
 _atom_site_fract_x
 _atom_site_fract_y
 _atom_site_fract_z
 _atom_site_occupancy
  Si4+  Si0  1  0.00000000  0.46879823  0.33333333  1
  Si4+  Si1  1  0.53120177  0.53120177  0.00000000  1
  Si4+  Si2  1  0.46879823  0.00000000  0.66666667  1
  O2-  O3  1  0.14453836  0.73143979  0.54781960  1
  O2-  O4  1  0.58690143  0.85546164  0.88115293  1
  O2-  O5  1  0.26856021  0.41309857  0.21448627  1
  O2-  O6  1  0.41309857  0.26856021  0.78551373  1
  O2-  O7  1  0.85546164  0.58690143  0.11884707  1
  O2-  O8  1  0.73143979  0.14453836  0.45218040  1
